* NGSPICE file created from OQPSK_PS_RCOSINE2.ext - technology: gf180mcuC

* Black-box entry subcircuit for gf180mcu_fd_sc_mcu7t5v0__filltie abstract view
.subckt gf180mcu_fd_sc_mcu7t5v0__filltie VDD VSS
.ends

* Black-box entry subcircuit for gf180mcu_fd_sc_mcu7t5v0__fill_2 abstract view
.subckt gf180mcu_fd_sc_mcu7t5v0__fill_2 VDD VSS
.ends

* Black-box entry subcircuit for gf180mcu_fd_sc_mcu7t5v0__aoi21_2 abstract view
.subckt gf180mcu_fd_sc_mcu7t5v0__aoi21_2 A1 A2 B ZN VDD VSS
.ends

* Black-box entry subcircuit for gf180mcu_fd_sc_mcu7t5v0__antenna abstract view
.subckt gf180mcu_fd_sc_mcu7t5v0__antenna I VDD VSS
.ends

* Black-box entry subcircuit for gf180mcu_fd_sc_mcu7t5v0__fill_1 abstract view
.subckt gf180mcu_fd_sc_mcu7t5v0__fill_1 VDD VSS
.ends

* Black-box entry subcircuit for gf180mcu_fd_sc_mcu7t5v0__oai21_1 abstract view
.subckt gf180mcu_fd_sc_mcu7t5v0__oai21_1 A1 A2 B ZN VDD VSS
.ends

* Black-box entry subcircuit for gf180mcu_fd_sc_mcu7t5v0__fillcap_8 abstract view
.subckt gf180mcu_fd_sc_mcu7t5v0__fillcap_8 VDD VSS
.ends

* Black-box entry subcircuit for gf180mcu_fd_sc_mcu7t5v0__dffrnq_1 abstract view
.subckt gf180mcu_fd_sc_mcu7t5v0__dffrnq_1 D RN CLK Q VDD VSS
.ends

* Black-box entry subcircuit for gf180mcu_fd_sc_mcu7t5v0__fillcap_4 abstract view
.subckt gf180mcu_fd_sc_mcu7t5v0__fillcap_4 VDD VSS
.ends

* Black-box entry subcircuit for gf180mcu_fd_sc_mcu7t5v0__nand3_1 abstract view
.subckt gf180mcu_fd_sc_mcu7t5v0__nand3_1 A1 A2 A3 ZN VDD VSS
.ends

* Black-box entry subcircuit for gf180mcu_fd_sc_mcu7t5v0__aoi21_1 abstract view
.subckt gf180mcu_fd_sc_mcu7t5v0__aoi21_1 A1 A2 B ZN VDD VSS
.ends

* Black-box entry subcircuit for gf180mcu_fd_sc_mcu7t5v0__nand3_2 abstract view
.subckt gf180mcu_fd_sc_mcu7t5v0__nand3_2 A1 A2 A3 ZN VDD VSS
.ends

* Black-box entry subcircuit for gf180mcu_fd_sc_mcu7t5v0__aoi221_2 abstract view
.subckt gf180mcu_fd_sc_mcu7t5v0__aoi221_2 A1 A2 B1 B2 C ZN VDD VSS
.ends

* Black-box entry subcircuit for gf180mcu_fd_sc_mcu7t5v0__buf_1 abstract view
.subckt gf180mcu_fd_sc_mcu7t5v0__buf_1 I Z VDD VSS
.ends

* Black-box entry subcircuit for gf180mcu_fd_sc_mcu7t5v0__clkbuf_1 abstract view
.subckt gf180mcu_fd_sc_mcu7t5v0__clkbuf_1 I Z VDD VSS
.ends

* Black-box entry subcircuit for gf180mcu_fd_sc_mcu7t5v0__aoi221_4 abstract view
.subckt gf180mcu_fd_sc_mcu7t5v0__aoi221_4 A1 A2 B1 B2 C ZN VDD VSS
.ends

* Black-box entry subcircuit for gf180mcu_fd_sc_mcu7t5v0__fillcap_16 abstract view
.subckt gf180mcu_fd_sc_mcu7t5v0__fillcap_16 VDD VSS
.ends

* Black-box entry subcircuit for gf180mcu_fd_sc_mcu7t5v0__and2_1 abstract view
.subckt gf180mcu_fd_sc_mcu7t5v0__and2_1 A1 A2 Z VDD VSS
.ends

* Black-box entry subcircuit for gf180mcu_fd_sc_mcu7t5v0__oai221_2 abstract view
.subckt gf180mcu_fd_sc_mcu7t5v0__oai221_2 A1 A2 B1 B2 C ZN VDD VSS
.ends

* Black-box entry subcircuit for gf180mcu_fd_sc_mcu7t5v0__fillcap_32 abstract view
.subckt gf180mcu_fd_sc_mcu7t5v0__fillcap_32 VDD VSS
.ends

* Black-box entry subcircuit for gf180mcu_fd_sc_mcu7t5v0__clkinv_1 abstract view
.subckt gf180mcu_fd_sc_mcu7t5v0__clkinv_1 I ZN VDD VSS
.ends

* Black-box entry subcircuit for gf180mcu_fd_sc_mcu7t5v0__oai31_1 abstract view
.subckt gf180mcu_fd_sc_mcu7t5v0__oai31_1 A1 A2 A3 B ZN VDD VSS
.ends

* Black-box entry subcircuit for gf180mcu_fd_sc_mcu7t5v0__aoi22_1 abstract view
.subckt gf180mcu_fd_sc_mcu7t5v0__aoi22_1 A1 A2 B1 B2 ZN VDD VSS
.ends

* Black-box entry subcircuit for gf180mcu_fd_sc_mcu7t5v0__nor2_1 abstract view
.subckt gf180mcu_fd_sc_mcu7t5v0__nor2_1 A1 A2 ZN VDD VSS
.ends

* Black-box entry subcircuit for gf180mcu_fd_sc_mcu7t5v0__nor2_2 abstract view
.subckt gf180mcu_fd_sc_mcu7t5v0__nor2_2 A1 A2 ZN VDD VSS
.ends

* Black-box entry subcircuit for gf180mcu_fd_sc_mcu7t5v0__or4_2 abstract view
.subckt gf180mcu_fd_sc_mcu7t5v0__or4_2 A1 A2 A3 A4 Z VDD VSS
.ends

* Black-box entry subcircuit for gf180mcu_fd_sc_mcu7t5v0__nand2_1 abstract view
.subckt gf180mcu_fd_sc_mcu7t5v0__nand2_1 A1 A2 ZN VDD VSS
.ends

* Black-box entry subcircuit for gf180mcu_fd_sc_mcu7t5v0__xor2_1 abstract view
.subckt gf180mcu_fd_sc_mcu7t5v0__xor2_1 A1 A2 Z VDD VSS
.ends

* Black-box entry subcircuit for gf180mcu_fd_sc_mcu7t5v0__oai211_2 abstract view
.subckt gf180mcu_fd_sc_mcu7t5v0__oai211_2 A1 A2 B C ZN VDD VSS
.ends

* Black-box entry subcircuit for gf180mcu_fd_sc_mcu7t5v0__oai21_2 abstract view
.subckt gf180mcu_fd_sc_mcu7t5v0__oai21_2 A1 A2 B ZN VDD VSS
.ends

* Black-box entry subcircuit for gf180mcu_fd_sc_mcu7t5v0__clkbuf_3 abstract view
.subckt gf180mcu_fd_sc_mcu7t5v0__clkbuf_3 I Z VDD VSS
.ends

* Black-box entry subcircuit for gf180mcu_fd_sc_mcu7t5v0__fillcap_64 abstract view
.subckt gf180mcu_fd_sc_mcu7t5v0__fillcap_64 VDD VSS
.ends

* Black-box entry subcircuit for gf180mcu_fd_sc_mcu7t5v0__nor3_1 abstract view
.subckt gf180mcu_fd_sc_mcu7t5v0__nor3_1 A1 A2 A3 ZN VDD VSS
.ends

* Black-box entry subcircuit for gf180mcu_fd_sc_mcu7t5v0__and3_1 abstract view
.subckt gf180mcu_fd_sc_mcu7t5v0__and3_1 A1 A2 A3 Z VDD VSS
.ends

* Black-box entry subcircuit for gf180mcu_fd_sc_mcu7t5v0__buf_2 abstract view
.subckt gf180mcu_fd_sc_mcu7t5v0__buf_2 I Z VDD VSS
.ends

* Black-box entry subcircuit for gf180mcu_fd_sc_mcu7t5v0__or2_1 abstract view
.subckt gf180mcu_fd_sc_mcu7t5v0__or2_1 A1 A2 Z VDD VSS
.ends

* Black-box entry subcircuit for gf180mcu_fd_sc_mcu7t5v0__nand4_1 abstract view
.subckt gf180mcu_fd_sc_mcu7t5v0__nand4_1 A1 A2 A3 A4 ZN VDD VSS
.ends

* Black-box entry subcircuit for gf180mcu_fd_sc_mcu7t5v0__aoi211_1 abstract view
.subckt gf180mcu_fd_sc_mcu7t5v0__aoi211_1 A1 A2 B C ZN VDD VSS
.ends

* Black-box entry subcircuit for gf180mcu_fd_sc_mcu7t5v0__nand4_2 abstract view
.subckt gf180mcu_fd_sc_mcu7t5v0__nand4_2 A1 A2 A3 A4 ZN VDD VSS
.ends

* Black-box entry subcircuit for gf180mcu_fd_sc_mcu7t5v0__clkbuf_2 abstract view
.subckt gf180mcu_fd_sc_mcu7t5v0__clkbuf_2 I Z VDD VSS
.ends

* Black-box entry subcircuit for gf180mcu_fd_sc_mcu7t5v0__or4_1 abstract view
.subckt gf180mcu_fd_sc_mcu7t5v0__or4_1 A1 A2 A3 A4 Z VDD VSS
.ends

* Black-box entry subcircuit for gf180mcu_fd_sc_mcu7t5v0__oai32_2 abstract view
.subckt gf180mcu_fd_sc_mcu7t5v0__oai32_2 A1 A2 A3 B1 B2 ZN VDD VSS
.ends

* Black-box entry subcircuit for gf180mcu_fd_sc_mcu7t5v0__aoi21_4 abstract view
.subckt gf180mcu_fd_sc_mcu7t5v0__aoi21_4 A1 A2 B ZN VDD VSS
.ends

* Black-box entry subcircuit for gf180mcu_fd_sc_mcu7t5v0__latrnq_1 abstract view
.subckt gf180mcu_fd_sc_mcu7t5v0__latrnq_1 D E RN Q VDD VSS
.ends

* Black-box entry subcircuit for gf180mcu_fd_sc_mcu7t5v0__oai211_1 abstract view
.subckt gf180mcu_fd_sc_mcu7t5v0__oai211_1 A1 A2 B C ZN VDD VSS
.ends

* Black-box entry subcircuit for gf180mcu_fd_sc_mcu7t5v0__xnor2_1 abstract view
.subckt gf180mcu_fd_sc_mcu7t5v0__xnor2_1 A1 A2 ZN VDD VSS
.ends

* Black-box entry subcircuit for gf180mcu_fd_sc_mcu7t5v0__mux2_2 abstract view
.subckt gf180mcu_fd_sc_mcu7t5v0__mux2_2 I0 I1 S Z VDD VSS
.ends

* Black-box entry subcircuit for gf180mcu_fd_sc_mcu7t5v0__oai22_1 abstract view
.subckt gf180mcu_fd_sc_mcu7t5v0__oai22_1 A1 A2 B1 B2 ZN VDD VSS
.ends

* Black-box entry subcircuit for gf180mcu_fd_sc_mcu7t5v0__aoi22_2 abstract view
.subckt gf180mcu_fd_sc_mcu7t5v0__aoi22_2 A1 A2 B1 B2 ZN VDD VSS
.ends

* Black-box entry subcircuit for gf180mcu_fd_sc_mcu7t5v0__aoi211_4 abstract view
.subckt gf180mcu_fd_sc_mcu7t5v0__aoi211_4 A1 A2 B C ZN VDD VSS
.ends

* Black-box entry subcircuit for gf180mcu_fd_sc_mcu7t5v0__clkinv_2 abstract view
.subckt gf180mcu_fd_sc_mcu7t5v0__clkinv_2 I ZN VDD VSS
.ends

* Black-box entry subcircuit for gf180mcu_fd_sc_mcu7t5v0__nor3_2 abstract view
.subckt gf180mcu_fd_sc_mcu7t5v0__nor3_2 A1 A2 A3 ZN VDD VSS
.ends

* Black-box entry subcircuit for gf180mcu_fd_sc_mcu7t5v0__endcap abstract view
.subckt gf180mcu_fd_sc_mcu7t5v0__endcap VDD VSS
.ends

* Black-box entry subcircuit for gf180mcu_fd_sc_mcu7t5v0__oai32_1 abstract view
.subckt gf180mcu_fd_sc_mcu7t5v0__oai32_1 A1 A2 A3 B1 B2 ZN VDD VSS
.ends

* Black-box entry subcircuit for gf180mcu_fd_sc_mcu7t5v0__clkbuf_16 abstract view
.subckt gf180mcu_fd_sc_mcu7t5v0__clkbuf_16 I Z VDD VSS
.ends

* Black-box entry subcircuit for gf180mcu_fd_sc_mcu7t5v0__oai211_4 abstract view
.subckt gf180mcu_fd_sc_mcu7t5v0__oai211_4 A1 A2 B C ZN VDD VSS
.ends

* Black-box entry subcircuit for gf180mcu_fd_sc_mcu7t5v0__aoi211_2 abstract view
.subckt gf180mcu_fd_sc_mcu7t5v0__aoi211_2 A1 A2 B C ZN VDD VSS
.ends

* Black-box entry subcircuit for gf180mcu_fd_sc_mcu7t5v0__oai31_2 abstract view
.subckt gf180mcu_fd_sc_mcu7t5v0__oai31_2 A1 A2 A3 B ZN VDD VSS
.ends

* Black-box entry subcircuit for gf180mcu_fd_sc_mcu7t5v0__inv_1 abstract view
.subckt gf180mcu_fd_sc_mcu7t5v0__inv_1 I ZN VDD VSS
.ends

* Black-box entry subcircuit for gf180mcu_fd_sc_mcu7t5v0__dlyb_1 abstract view
.subckt gf180mcu_fd_sc_mcu7t5v0__dlyb_1 I Z VDD VSS
.ends

* Black-box entry subcircuit for gf180mcu_fd_sc_mcu7t5v0__oai221_1 abstract view
.subckt gf180mcu_fd_sc_mcu7t5v0__oai221_1 A1 A2 B1 B2 C ZN VDD VSS
.ends

* Black-box entry subcircuit for gf180mcu_fd_sc_mcu7t5v0__xor3_1 abstract view
.subckt gf180mcu_fd_sc_mcu7t5v0__xor3_1 A1 A2 A3 Z VDD VSS
.ends

* Black-box entry subcircuit for gf180mcu_fd_sc_mcu7t5v0__or3_1 abstract view
.subckt gf180mcu_fd_sc_mcu7t5v0__or3_1 A1 A2 A3 Z VDD VSS
.ends

* Black-box entry subcircuit for gf180mcu_fd_sc_mcu7t5v0__oai221_4 abstract view
.subckt gf180mcu_fd_sc_mcu7t5v0__oai221_4 A1 A2 B1 B2 C ZN VDD VSS
.ends

* Black-box entry subcircuit for gf180mcu_fd_sc_mcu7t5v0__and4_1 abstract view
.subckt gf180mcu_fd_sc_mcu7t5v0__and4_1 A1 A2 A3 A4 Z VDD VSS
.ends

* Black-box entry subcircuit for gf180mcu_fd_sc_mcu7t5v0__oai22_2 abstract view
.subckt gf180mcu_fd_sc_mcu7t5v0__oai22_2 A1 A2 B1 B2 ZN VDD VSS
.ends

* Black-box entry subcircuit for gf180mcu_fd_sc_mcu7t5v0__dlyc_1 abstract view
.subckt gf180mcu_fd_sc_mcu7t5v0__dlyc_1 I Z VDD VSS
.ends

* Black-box entry subcircuit for gf180mcu_fd_sc_mcu7t5v0__aoi222_4 abstract view
.subckt gf180mcu_fd_sc_mcu7t5v0__aoi222_4 A1 A2 B1 B2 C1 C2 ZN VDD VSS
.ends

* Black-box entry subcircuit for gf180mcu_fd_sc_mcu7t5v0__nor3_4 abstract view
.subckt gf180mcu_fd_sc_mcu7t5v0__nor3_4 A1 A2 A3 ZN VDD VSS
.ends

* Black-box entry subcircuit for gf180mcu_fd_sc_mcu7t5v0__nor4_1 abstract view
.subckt gf180mcu_fd_sc_mcu7t5v0__nor4_1 A1 A2 A3 A4 ZN VDD VSS
.ends

* Black-box entry subcircuit for gf180mcu_fd_sc_mcu7t5v0__nand2_2 abstract view
.subckt gf180mcu_fd_sc_mcu7t5v0__nand2_2 A1 A2 ZN VDD VSS
.ends

* Black-box entry subcircuit for gf180mcu_fd_sc_mcu7t5v0__nor2_4 abstract view
.subckt gf180mcu_fd_sc_mcu7t5v0__nor2_4 A1 A2 ZN VDD VSS
.ends

* Black-box entry subcircuit for gf180mcu_fd_sc_mcu7t5v0__nor4_4 abstract view
.subckt gf180mcu_fd_sc_mcu7t5v0__nor4_4 A1 A2 A3 A4 ZN VDD VSS
.ends

* Black-box entry subcircuit for gf180mcu_fd_sc_mcu7t5v0__mux4_1 abstract view
.subckt gf180mcu_fd_sc_mcu7t5v0__mux4_1 I0 I1 I2 I3 S0 S1 Z VDD VSS
.ends

* Black-box entry subcircuit for gf180mcu_fd_sc_mcu7t5v0__or3_2 abstract view
.subckt gf180mcu_fd_sc_mcu7t5v0__or3_2 A1 A2 A3 Z VDD VSS
.ends

* Black-box entry subcircuit for gf180mcu_fd_sc_mcu7t5v0__aoi221_1 abstract view
.subckt gf180mcu_fd_sc_mcu7t5v0__aoi221_1 A1 A2 B1 B2 C ZN VDD VSS
.ends

* Black-box entry subcircuit for gf180mcu_fd_sc_mcu7t5v0__nor4_2 abstract view
.subckt gf180mcu_fd_sc_mcu7t5v0__nor4_2 A1 A2 A3 A4 ZN VDD VSS
.ends

* Black-box entry subcircuit for gf180mcu_fd_sc_mcu7t5v0__and2_2 abstract view
.subckt gf180mcu_fd_sc_mcu7t5v0__and2_2 A1 A2 Z VDD VSS
.ends

* Black-box entry subcircuit for gf180mcu_fd_sc_mcu7t5v0__xnor3_1 abstract view
.subckt gf180mcu_fd_sc_mcu7t5v0__xnor3_1 A1 A2 A3 ZN VDD VSS
.ends

* Black-box entry subcircuit for gf180mcu_fd_sc_mcu7t5v0__nand3_4 abstract view
.subckt gf180mcu_fd_sc_mcu7t5v0__nand3_4 A1 A2 A3 ZN VDD VSS
.ends

.subckt OQPSK_PS_RCOSINE2 BitIn CLK EN I[0] I[10] I[11] I[12] I[1] I[2] I[3] I[4]
+ I[5] I[6] I[7] I[8] I[9] Q[0] Q[10] Q[11] Q[12] Q[1] Q[2] Q[3] Q[4] Q[5] Q[6] Q[7]
+ Q[8] Q[9] RST addI[0] addI[1] addI[2] addI[3] addI[4] addI[5] addQ[0] addQ[1] addQ[2]
+ addQ[3] addQ[4] addQ[5] vdd vss
XTAP_199 vdd vss gf180mcu_fd_sc_mcu7t5v0__filltie
XTAP_188 vdd vss gf180mcu_fd_sc_mcu7t5v0__filltie
XTAP_177 vdd vss gf180mcu_fd_sc_mcu7t5v0__filltie
XFILLER_39_211 vdd vss gf180mcu_fd_sc_mcu7t5v0__fill_2
X_2106_ _1174_ _1175_ _1178_ _1179_ vdd vss gf180mcu_fd_sc_mcu7t5v0__aoi21_2
XANTENNA_fanout56_I net58 vdd vss gf180mcu_fd_sc_mcu7t5v0__antenna
XFILLER_27_428 vdd vss gf180mcu_fd_sc_mcu7t5v0__fill_1
XFILLER_39_299 vdd vss gf180mcu_fd_sc_mcu7t5v0__fill_2
XFILLER_54_247 vdd vss gf180mcu_fd_sc_mcu7t5v0__fill_1
X_2037_ _1095_ _1100_ _1110_ _1111_ vdd vss gf180mcu_fd_sc_mcu7t5v0__oai21_1
XFILLER_52_18 vdd vss gf180mcu_fd_sc_mcu7t5v0__fillcap_8
XFILLER_22_111 vdd vss gf180mcu_fd_sc_mcu7t5v0__fill_2
XFILLER_22_122 vdd vss gf180mcu_fd_sc_mcu7t5v0__fill_2
X_2939_ _0025_ net57 net43 p_shaping_I.counter\[1\] vdd vss gf180mcu_fd_sc_mcu7t5v0__dffrnq_1
XFILLER_50_497 vdd vss gf180mcu_fd_sc_mcu7t5v0__fill_2
XANTENNA__1757__A2 _0669_ vdd vss gf180mcu_fd_sc_mcu7t5v0__antenna
XANTENNA__2706__A1 _0317_ vdd vss gf180mcu_fd_sc_mcu7t5v0__antenna
XANTENNA_output37_I net37 vdd vss gf180mcu_fd_sc_mcu7t5v0__antenna
XFILLER_60_217 vdd vss gf180mcu_fd_sc_mcu7t5v0__fill_2
XFILLER_26_472 vdd vss gf180mcu_fd_sc_mcu7t5v0__fill_2
XANTENNA__1479__I _0210_ vdd vss gf180mcu_fd_sc_mcu7t5v0__antenna
XFILLER_41_431 vdd vss gf180mcu_fd_sc_mcu7t5v0__fillcap_4
XFILLER_9_104 vdd vss gf180mcu_fd_sc_mcu7t5v0__fill_2
XFILLER_13_144 vdd vss gf180mcu_fd_sc_mcu7t5v0__fill_2
XFILLER_42_51 vdd vss gf180mcu_fd_sc_mcu7t5v0__fill_2
XFILLER_9_126 vdd vss gf180mcu_fd_sc_mcu7t5v0__fill_2
XFILLER_5_354 vdd vss gf180mcu_fd_sc_mcu7t5v0__fill_1
XFILLER_5_332 vdd vss gf180mcu_fd_sc_mcu7t5v0__fillcap_4
XANTENNA__1942__I _1018_ vdd vss gf180mcu_fd_sc_mcu7t5v0__antenna
XANTENNA__1920__A2 _0974_ vdd vss gf180mcu_fd_sc_mcu7t5v0__antenna
XFILLER_3_45 vdd vss gf180mcu_fd_sc_mcu7t5v0__fill_2
XFILLER_36_203 vdd vss gf180mcu_fd_sc_mcu7t5v0__fill_2
XANTENNA__2881__B1 net42 vdd vss gf180mcu_fd_sc_mcu7t5v0__antenna
XFILLER_36_247 vdd vss gf180mcu_fd_sc_mcu7t5v0__fill_1
XFILLER_36_258 vdd vss gf180mcu_fd_sc_mcu7t5v0__fill_2
XFILLER_17_450 vdd vss gf180mcu_fd_sc_mcu7t5v0__fill_2
X_2724_ _0418_ _0034_ _1389_ _0419_ vdd vss gf180mcu_fd_sc_mcu7t5v0__nand3_1
X_2655_ _0325_ _0335_ _0343_ _0344_ vdd vss gf180mcu_fd_sc_mcu7t5v0__aoi21_1
X_1606_ _0681_ _0683_ _0685_ _0686_ vdd vss gf180mcu_fd_sc_mcu7t5v0__nand3_2
X_2586_ _0211_ _0222_ _0266_ _0268_ _0269_ _0270_ vdd vss gf180mcu_fd_sc_mcu7t5v0__aoi221_2
X_1537_ _0617_ _1537_/Z vdd vss gf180mcu_fd_sc_mcu7t5v0__buf_1
X_1468_ _0091_ _0102_ vdd vss gf180mcu_fd_sc_mcu7t5v0__clkbuf_1
XFILLER_67_361 vdd vss gf180mcu_fd_sc_mcu7t5v0__fillcap_4
XFILLER_47_29 vdd vss gf180mcu_fd_sc_mcu7t5v0__fill_2
XANTENNA__1675__A1 _0753_ vdd vss gf180mcu_fd_sc_mcu7t5v0__antenna
XFILLER_15_409 vdd vss gf180mcu_fd_sc_mcu7t5v0__fill_2
XFILLER_27_269 vdd vss gf180mcu_fd_sc_mcu7t5v0__fill_1
XFILLER_23_431 vdd vss gf180mcu_fd_sc_mcu7t5v0__fillcap_4
XFILLER_50_250 vdd vss gf180mcu_fd_sc_mcu7t5v0__fill_2
XFILLER_10_103 vdd vss gf180mcu_fd_sc_mcu7t5v0__fill_2
XFILLER_23_486 vdd vss gf180mcu_fd_sc_mcu7t5v0__fillcap_4
XFILLER_5_4 vdd vss gf180mcu_fd_sc_mcu7t5v0__fill_1
XANTENNA__1902__A2 _0949_ vdd vss gf180mcu_fd_sc_mcu7t5v0__antenna
XFILLER_58_383 vdd vss gf180mcu_fd_sc_mcu7t5v0__fill_2
XFILLER_58_372 vdd vss gf180mcu_fd_sc_mcu7t5v0__fill_2
XFILLER_18_203 vdd vss gf180mcu_fd_sc_mcu7t5v0__fill_2
XFILLER_37_40 vdd vss gf180mcu_fd_sc_mcu7t5v0__fill_2
XANTENNA__2593__I _1372_ vdd vss gf180mcu_fd_sc_mcu7t5v0__antenna
XFILLER_18_247 vdd vss gf180mcu_fd_sc_mcu7t5v0__fill_1
XFILLER_37_73 vdd vss gf180mcu_fd_sc_mcu7t5v0__fill_1
XFILLER_18_269 vdd vss gf180mcu_fd_sc_mcu7t5v0__fillcap_4
XFILLER_26_280 vdd vss gf180mcu_fd_sc_mcu7t5v0__fill_2
XFILLER_33_228 vdd vss gf180mcu_fd_sc_mcu7t5v0__fill_2
XANTENNA__1969__A2 _1044_ vdd vss gf180mcu_fd_sc_mcu7t5v0__antenna
XFILLER_14_442 vdd vss gf180mcu_fd_sc_mcu7t5v0__fill_2
XFILLER_14_475 vdd vss gf180mcu_fd_sc_mcu7t5v0__fill_2
XFILLER_41_294 vdd vss gf180mcu_fd_sc_mcu7t5v0__fillcap_4
XANTENNA__2394__A2 _1414_ vdd vss gf180mcu_fd_sc_mcu7t5v0__antenna
XFILLER_5_162 vdd vss gf180mcu_fd_sc_mcu7t5v0__fill_2
X_2440_ _0110_ _0111_ vdd vss gf180mcu_fd_sc_mcu7t5v0__buf_1
X_2371_ _0027_ _0029_ _0032_ _0033_ _0034_ _0035_ vdd vss gf180mcu_fd_sc_mcu7t5v0__aoi221_4
XFILLER_32_250 vdd vss gf180mcu_fd_sc_mcu7t5v0__fillcap_4
XANTENNA__2621__A3 _0213_ vdd vss gf180mcu_fd_sc_mcu7t5v0__antenna
XFILLER_32_272 vdd vss gf180mcu_fd_sc_mcu7t5v0__fill_1
XANTENNA__2909__A1 _0592_ vdd vss gf180mcu_fd_sc_mcu7t5v0__antenna
XFILLER_20_478 vdd vss gf180mcu_fd_sc_mcu7t5v0__fillcap_4
X_2707_ _0335_ _0401_ vdd vss gf180mcu_fd_sc_mcu7t5v0__clkbuf_1
XANTENNA__2137__A2 _1206_ vdd vss gf180mcu_fd_sc_mcu7t5v0__antenna
X_2638_ _0272_ _0298_ _0095_ _0042_ _0302_ _0326_ vdd vss gf180mcu_fd_sc_mcu7t5v0__aoi221_2
XFILLER_59_103 vdd vss gf180mcu_fd_sc_mcu7t5v0__fill_2
X_2569_ _0246_ _0247_ _0250_ _0251_ vdd vss gf180mcu_fd_sc_mcu7t5v0__oai21_1
XANTENNA__1896__A1 _0964_ vdd vss gf180mcu_fd_sc_mcu7t5v0__antenna
XFILLER_67_180 vdd vss gf180mcu_fd_sc_mcu7t5v0__fillcap_16
XANTENNA__2845__B1 _0304_ vdd vss gf180mcu_fd_sc_mcu7t5v0__antenna
XFILLER_15_206 vdd vss gf180mcu_fd_sc_mcu7t5v0__fill_1
XFILLER_15_228 vdd vss gf180mcu_fd_sc_mcu7t5v0__fill_2
XANTENNA__2073__A1 _0759_ vdd vss gf180mcu_fd_sc_mcu7t5v0__antenna
XFILLER_11_412 vdd vss gf180mcu_fd_sc_mcu7t5v0__fill_2
XFILLER_23_261 vdd vss gf180mcu_fd_sc_mcu7t5v0__fill_2
XFILLER_23_283 vdd vss gf180mcu_fd_sc_mcu7t5v0__fill_1
XFILLER_23_42 vdd vss gf180mcu_fd_sc_mcu7t5v0__fill_1
XFILLER_7_449 vdd vss gf180mcu_fd_sc_mcu7t5v0__fill_2
XFILLER_7_416 vdd vss gf180mcu_fd_sc_mcu7t5v0__fill_2
XFILLER_11_467 vdd vss gf180mcu_fd_sc_mcu7t5v0__fill_2
XANTENNA__2376__A2 _1327_ vdd vss gf180mcu_fd_sc_mcu7t5v0__antenna
XFILLER_2_121 vdd vss gf180mcu_fd_sc_mcu7t5v0__fill_2
XANTENNA__1492__I _0351_ vdd vss gf180mcu_fd_sc_mcu7t5v0__antenna
XANTENNA__2588__I _0108_ vdd vss gf180mcu_fd_sc_mcu7t5v0__antenna
XFILLER_2_198 vdd vss gf180mcu_fd_sc_mcu7t5v0__fill_1
XANTENNA__1887__A1 _0690_ vdd vss gf180mcu_fd_sc_mcu7t5v0__antenna
XFILLER_61_301 vdd vss gf180mcu_fd_sc_mcu7t5v0__fill_1
XFILLER_46_353 vdd vss gf180mcu_fd_sc_mcu7t5v0__fill_2
XFILLER_46_397 vdd vss gf180mcu_fd_sc_mcu7t5v0__fill_1
XFILLER_61_389 vdd vss gf180mcu_fd_sc_mcu7t5v0__fill_2
X_1940_ _1013_ _1016_ _1017_ vdd vss gf180mcu_fd_sc_mcu7t5v0__and2_1
XFILLER_14_250 vdd vss gf180mcu_fd_sc_mcu7t5v0__fill_1
XANTENNA__1811__A1 _0666_ vdd vss gf180mcu_fd_sc_mcu7t5v0__antenna
X_1871_ _0707_ _0949_ vdd vss gf180mcu_fd_sc_mcu7t5v0__clkbuf_1
XANTENNA__2367__A2 _0030_ vdd vss gf180mcu_fd_sc_mcu7t5v0__antenna
XFILLER_43_2 vdd vss gf180mcu_fd_sc_mcu7t5v0__fillcap_16
X_2423_ _1427_ _0090_ _0092_ _1319_ _0072_ _0093_ vdd vss gf180mcu_fd_sc_mcu7t5v0__oai221_2
X_2354_ _1272_ _1328_ _1377_ _1435_ vdd vss gf180mcu_fd_sc_mcu7t5v0__oai21_1
X_2285_ _1258_ _1361_ vdd vss gf180mcu_fd_sc_mcu7t5v0__buf_1
XFILLER_49_180 vdd vss gf180mcu_fd_sc_mcu7t5v0__fillcap_32
XFILLER_64_172 vdd vss gf180mcu_fd_sc_mcu7t5v0__fillcap_4
XFILLER_52_378 vdd vss gf180mcu_fd_sc_mcu7t5v0__fill_2
XFILLER_52_345 vdd vss gf180mcu_fd_sc_mcu7t5v0__fill_2
XANTENNA__1802__B2 _0210_ vdd vss gf180mcu_fd_sc_mcu7t5v0__antenna
XANTENNA__1577__I net45 vdd vss gf180mcu_fd_sc_mcu7t5v0__antenna
XANTENNA__1802__A1 _0759_ vdd vss gf180mcu_fd_sc_mcu7t5v0__antenna
XFILLER_20_220 vdd vss gf180mcu_fd_sc_mcu7t5v0__fill_2
XFILLER_20_264 vdd vss gf180mcu_fd_sc_mcu7t5v0__fill_2
XANTENNA__2358__A2 _1438_ vdd vss gf180mcu_fd_sc_mcu7t5v0__antenna
XANTENNA__1869__A1 _0675_ vdd vss gf180mcu_fd_sc_mcu7t5v0__antenna
XFILLER_55_150 vdd vss gf180mcu_fd_sc_mcu7t5v0__fill_1
XFILLER_28_364 vdd vss gf180mcu_fd_sc_mcu7t5v0__fill_2
XFILLER_43_323 vdd vss gf180mcu_fd_sc_mcu7t5v0__fill_2
XANTENNA__2076__C _0784_ vdd vss gf180mcu_fd_sc_mcu7t5v0__antenna
XFILLER_34_30 vdd vss gf180mcu_fd_sc_mcu7t5v0__fill_2
XFILLER_43_378 vdd vss gf180mcu_fd_sc_mcu7t5v0__fill_1
XANTENNA__1487__I net46 vdd vss gf180mcu_fd_sc_mcu7t5v0__antenna
XFILLER_34_96 vdd vss gf180mcu_fd_sc_mcu7t5v0__fill_1
XFILLER_11_264 vdd vss gf180mcu_fd_sc_mcu7t5v0__fill_2
XFILLER_7_235 vdd vss gf180mcu_fd_sc_mcu7t5v0__fill_2
XFILLER_11_286 vdd vss gf180mcu_fd_sc_mcu7t5v0__fill_2
XTAP_507 vdd vss gf180mcu_fd_sc_mcu7t5v0__filltie
XFILLER_3_463 vdd vss gf180mcu_fd_sc_mcu7t5v0__fill_2
XTAP_529 vdd vss gf180mcu_fd_sc_mcu7t5v0__filltie
XTAP_518 vdd vss gf180mcu_fd_sc_mcu7t5v0__filltie
XFILLER_3_485 vdd vss gf180mcu_fd_sc_mcu7t5v0__fill_2
XFILLER_38_128 vdd vss gf180mcu_fd_sc_mcu7t5v0__fill_2
X_2070_ _1131_ _1143_ vdd vss gf180mcu_fd_sc_mcu7t5v0__clkinv_1
XFILLER_19_331 vdd vss gf180mcu_fd_sc_mcu7t5v0__fill_2
XFILLER_38_139 vdd vss gf180mcu_fd_sc_mcu7t5v0__fill_2
XFILLER_34_378 vdd vss gf180mcu_fd_sc_mcu7t5v0__fill_2
X_1923_ _0981_ _0791_ _0919_ _0839_ _1000_ vdd vss gf180mcu_fd_sc_mcu7t5v0__oai31_1
XANTENNA__1796__B1 _0873_ vdd vss gf180mcu_fd_sc_mcu7t5v0__antenna
X_1854_ _0814_ _0929_ _0930_ _0931_ _0932_ vdd vss gf180mcu_fd_sc_mcu7t5v0__aoi22_1
X_1785_ _0728_ _0649_ _0864_ vdd vss gf180mcu_fd_sc_mcu7t5v0__nor2_1
XANTENNA__2760__A2 _1442_ vdd vss gf180mcu_fd_sc_mcu7t5v0__antenna
X_2406_ _1300_ _1265_ _0074_ vdd vss gf180mcu_fd_sc_mcu7t5v0__nor2_2
X_2337_ _1416_ _1417_ vdd vss gf180mcu_fd_sc_mcu7t5v0__buf_1
XANTENNA__2512__A2 _1352_ vdd vss gf180mcu_fd_sc_mcu7t5v0__antenna
X_2268_ _1340_ _1300_ _1341_ _1323_ _1342_ vdd vss gf180mcu_fd_sc_mcu7t5v0__or4_2
XFILLER_65_492 vdd vss gf180mcu_fd_sc_mcu7t5v0__fillcap_4
X_2199_ _1265_ _1266_ vdd vss gf180mcu_fd_sc_mcu7t5v0__buf_1
XFILLER_25_334 vdd vss gf180mcu_fd_sc_mcu7t5v0__fill_2
XFILLER_52_131 vdd vss gf180mcu_fd_sc_mcu7t5v0__fill_1
XFILLER_40_304 vdd vss gf180mcu_fd_sc_mcu7t5v0__fill_1
XFILLER_40_315 vdd vss gf180mcu_fd_sc_mcu7t5v0__fillcap_4
XFILLER_52_197 vdd vss gf180mcu_fd_sc_mcu7t5v0__fill_2
XFILLER_20_10 vdd vss gf180mcu_fd_sc_mcu7t5v0__fill_2
XANTENNA__2640__B _1408_ vdd vss gf180mcu_fd_sc_mcu7t5v0__antenna
XANTENNA__2200__A1 _1264_ vdd vss gf180mcu_fd_sc_mcu7t5v0__antenna
XFILLER_4_227 vdd vss gf180mcu_fd_sc_mcu7t5v0__fillcap_16
XFILLER_0_422 vdd vss gf180mcu_fd_sc_mcu7t5v0__fill_1
XFILLER_20_87 vdd vss gf180mcu_fd_sc_mcu7t5v0__fill_2
XFILLER_0_433 vdd vss gf180mcu_fd_sc_mcu7t5v0__fill_2
XFILLER_29_41 vdd vss gf180mcu_fd_sc_mcu7t5v0__fill_2
XFILLER_48_448 vdd vss gf180mcu_fd_sc_mcu7t5v0__fill_2
XFILLER_0_499 vdd vss gf180mcu_fd_sc_mcu7t5v0__fill_2
XFILLER_45_73 vdd vss gf180mcu_fd_sc_mcu7t5v0__fillcap_4
XFILLER_45_62 vdd vss gf180mcu_fd_sc_mcu7t5v0__fill_2
XFILLER_43_131 vdd vss gf180mcu_fd_sc_mcu7t5v0__fillcap_4
XANTENNA__2019__A1 _0665_ vdd vss gf180mcu_fd_sc_mcu7t5v0__antenna
XFILLER_43_186 vdd vss gf180mcu_fd_sc_mcu7t5v0__fillcap_4
XFILLER_16_389 vdd vss gf180mcu_fd_sc_mcu7t5v0__fill_1
XANTENNA__1490__A2 _0297_ vdd vss gf180mcu_fd_sc_mcu7t5v0__antenna
XFILLER_8_500 vdd vss gf180mcu_fd_sc_mcu7t5v0__fill_2
XFILLER_6_34 vdd vss gf180mcu_fd_sc_mcu7t5v0__fill_1
X_1570_ _0649_ _0650_ vdd vss gf180mcu_fd_sc_mcu7t5v0__buf_1
XTAP_304 vdd vss gf180mcu_fd_sc_mcu7t5v0__filltie
XTAP_315 vdd vss gf180mcu_fd_sc_mcu7t5v0__filltie
XFILLER_3_282 vdd vss gf180mcu_fd_sc_mcu7t5v0__fill_2
XTAP_326 vdd vss gf180mcu_fd_sc_mcu7t5v0__filltie
XTAP_337 vdd vss gf180mcu_fd_sc_mcu7t5v0__filltie
XTAP_348 vdd vss gf180mcu_fd_sc_mcu7t5v0__filltie
XFILLER_66_201 vdd vss gf180mcu_fd_sc_mcu7t5v0__fillcap_16
XANTENNA__2776__I _0240_ vdd vss gf180mcu_fd_sc_mcu7t5v0__antenna
XTAP_359 vdd vss gf180mcu_fd_sc_mcu7t5v0__filltie
XFILLER_39_415 vdd vss gf180mcu_fd_sc_mcu7t5v0__fill_2
XANTENNA__1848__A4 _0915_ vdd vss gf180mcu_fd_sc_mcu7t5v0__antenna
X_2122_ _1160_ _1192_ _1193_ vdd vss gf180mcu_fd_sc_mcu7t5v0__nand2_1
XFILLER_54_418 vdd vss gf180mcu_fd_sc_mcu7t5v0__fill_2
X_2053_ _1118_ _1119_ _1124_ _0744_ _1126_ _1127_ vdd vss gf180mcu_fd_sc_mcu7t5v0__aoi221_2
XFILLER_34_120 vdd vss gf180mcu_fd_sc_mcu7t5v0__fill_2
XFILLER_62_495 vdd vss gf180mcu_fd_sc_mcu7t5v0__fillcap_8
XFILLER_22_337 vdd vss gf180mcu_fd_sc_mcu7t5v0__fill_2
X_2886_ _0439_ _0581_ _0582_ vdd vss gf180mcu_fd_sc_mcu7t5v0__xor2_1
X_1906_ _0683_ _0793_ _0983_ vdd vss gf180mcu_fd_sc_mcu7t5v0__nand2_1
XFILLER_30_392 vdd vss gf180mcu_fd_sc_mcu7t5v0__fill_1
X_1837_ _0728_ _1443_ _0644_ _0406_ _0915_ vdd vss gf180mcu_fd_sc_mcu7t5v0__oai211_2
X_1768_ _0786_ _0844_ _0846_ _0847_ vdd vss gf180mcu_fd_sc_mcu7t5v0__oai21_2
XANTENNA__2733__A2 _0415_ vdd vss gf180mcu_fd_sc_mcu7t5v0__antenna
X_1699_ _0659_ _0777_ _0778_ vdd vss gf180mcu_fd_sc_mcu7t5v0__nand2_1
XFILLER_66_17 vdd vss gf180mcu_fd_sc_mcu7t5v0__fill_2
XFILLER_57_201 vdd vss gf180mcu_fd_sc_mcu7t5v0__fill_2
XANTENNA__1590__I _0669_ vdd vss gf180mcu_fd_sc_mcu7t5v0__antenna
XFILLER_57_212 vdd vss gf180mcu_fd_sc_mcu7t5v0__fill_1
XFILLER_25_131 vdd vss gf180mcu_fd_sc_mcu7t5v0__fillcap_4
XFILLER_13_304 vdd vss gf180mcu_fd_sc_mcu7t5v0__fill_2
XFILLER_25_153 vdd vss gf180mcu_fd_sc_mcu7t5v0__fillcap_4
XFILLER_25_164 vdd vss gf180mcu_fd_sc_mcu7t5v0__fill_2
XFILLER_13_326 vdd vss gf180mcu_fd_sc_mcu7t5v0__fill_2
XFILLER_13_359 vdd vss gf180mcu_fd_sc_mcu7t5v0__fill_1
XFILLER_40_134 vdd vss gf180mcu_fd_sc_mcu7t5v0__fillcap_4
XANTENNA__2421__A1 _1301_ vdd vss gf180mcu_fd_sc_mcu7t5v0__antenna
XANTENNA__2724__A2 _0034_ vdd vss gf180mcu_fd_sc_mcu7t5v0__antenna
Xoutput20 net20 Q[12] vdd vss gf180mcu_fd_sc_mcu7t5v0__clkbuf_3
Xoutput7 net7 I[12] vdd vss gf180mcu_fd_sc_mcu7t5v0__clkbuf_3
Xoutput31 net31 addI[1] vdd vss gf180mcu_fd_sc_mcu7t5v0__clkbuf_3
XANTENNA__2488__A1 _0151_ vdd vss gf180mcu_fd_sc_mcu7t5v0__antenna
XANTENNA__2596__I _1282_ vdd vss gf180mcu_fd_sc_mcu7t5v0__antenna
XFILLER_48_234 vdd vss gf180mcu_fd_sc_mcu7t5v0__fill_2
XFILLER_0_274 vdd vss gf180mcu_fd_sc_mcu7t5v0__fillcap_4
XFILLER_48_267 vdd vss gf180mcu_fd_sc_mcu7t5v0__fill_2
XFILLER_63_215 vdd vss gf180mcu_fd_sc_mcu7t5v0__fillcap_64
XFILLER_56_61 vdd vss gf180mcu_fd_sc_mcu7t5v0__fillcap_4
XANTENNA__2264__C _1262_ vdd vss gf180mcu_fd_sc_mcu7t5v0__antenna
XANTENNA__2660__A1 _0299_ vdd vss gf180mcu_fd_sc_mcu7t5v0__antenna
XFILLER_12_370 vdd vss gf180mcu_fd_sc_mcu7t5v0__fill_2
X_2740_ _0435_ _0090_ _0436_ vdd vss gf180mcu_fd_sc_mcu7t5v0__nand2_1
XANTENNA__2412__A1 _0077_ vdd vss gf180mcu_fd_sc_mcu7t5v0__antenna
X_2671_ _0349_ _0357_ _0361_ vdd vss gf180mcu_fd_sc_mcu7t5v0__nand2_1
XFILLER_12_392 vdd vss gf180mcu_fd_sc_mcu7t5v0__fill_1
XANTENNA__2280__B _1354_ vdd vss gf180mcu_fd_sc_mcu7t5v0__antenna
XFILLER_8_385 vdd vss gf180mcu_fd_sc_mcu7t5v0__fill_2
X_1622_ net37 _0702_ vdd vss gf180mcu_fd_sc_mcu7t5v0__clkbuf_1
X_1553_ _0632_ _0308_ _0633_ vdd vss gf180mcu_fd_sc_mcu7t5v0__and2_1
X_1484_ _0243_ _0265_ _0276_ vdd vss gf180mcu_fd_sc_mcu7t5v0__nor2_1
XANTENNA__2479__A1 _1399_ vdd vss gf180mcu_fd_sc_mcu7t5v0__antenna
XTAP_145 vdd vss gf180mcu_fd_sc_mcu7t5v0__filltie
XTAP_156 vdd vss gf180mcu_fd_sc_mcu7t5v0__filltie
XTAP_189 vdd vss gf180mcu_fd_sc_mcu7t5v0__filltie
XTAP_178 vdd vss gf180mcu_fd_sc_mcu7t5v0__filltie
XTAP_167 vdd vss gf180mcu_fd_sc_mcu7t5v0__filltie
X_2105_ _1140_ _1176_ _1177_ _1178_ vdd vss gf180mcu_fd_sc_mcu7t5v0__oai21_1
X_2036_ _0828_ _1083_ _1092_ _1110_ vdd vss gf180mcu_fd_sc_mcu7t5v0__nand3_1
XANTENNA_fanout49_I net50 vdd vss gf180mcu_fd_sc_mcu7t5v0__antenna
XFILLER_50_410 vdd vss gf180mcu_fd_sc_mcu7t5v0__fill_2
XFILLER_22_145 vdd vss gf180mcu_fd_sc_mcu7t5v0__fill_1
XFILLER_22_156 vdd vss gf180mcu_fd_sc_mcu7t5v0__fill_2
X_2938_ _0024_ net57 net43 p_shaping_I.counter\[0\] vdd vss gf180mcu_fd_sc_mcu7t5v0__dffrnq_1
XFILLER_10_318 vdd vss gf180mcu_fd_sc_mcu7t5v0__fill_1
XANTENNA__2403__A1 _1305_ vdd vss gf180mcu_fd_sc_mcu7t5v0__antenna
XFILLER_22_189 vdd vss gf180mcu_fd_sc_mcu7t5v0__fill_2
XANTENNA__2190__B _1357_ vdd vss gf180mcu_fd_sc_mcu7t5v0__antenna
XANTENNA__2921__CLK clknet_1_1__leaf_CLK vdd vss gf180mcu_fd_sc_mcu7t5v0__antenna
X_2869_ _0603_ net42 _0568_ _0006_ vdd vss gf180mcu_fd_sc_mcu7t5v0__oai21_1
XANTENNA__2706__A2 _0324_ vdd vss gf180mcu_fd_sc_mcu7t5v0__antenna
XFILLER_18_407 vdd vss gf180mcu_fd_sc_mcu7t5v0__fill_2
XFILLER_45_215 vdd vss gf180mcu_fd_sc_mcu7t5v0__fill_1
XFILLER_18_429 vdd vss gf180mcu_fd_sc_mcu7t5v0__fill_2
XFILLER_26_53 vdd vss gf180mcu_fd_sc_mcu7t5v0__fill_2
XFILLER_26_86 vdd vss gf180mcu_fd_sc_mcu7t5v0__fillcap_4
XANTENNA__2642__A1 _0281_ vdd vss gf180mcu_fd_sc_mcu7t5v0__antenna
XFILLER_13_156 vdd vss gf180mcu_fd_sc_mcu7t5v0__fill_2
XFILLER_41_465 vdd vss gf180mcu_fd_sc_mcu7t5v0__fill_1
XFILLER_42_30 vdd vss gf180mcu_fd_sc_mcu7t5v0__fill_2
XANTENNA__1495__I net38 vdd vss gf180mcu_fd_sc_mcu7t5v0__antenna
XANTENNA__2881__A1 _0248_ vdd vss gf180mcu_fd_sc_mcu7t5v0__antenna
XANTENNA__1684__A2 _0759_ vdd vss gf180mcu_fd_sc_mcu7t5v0__antenna
X_2723_ _0365_ _0418_ vdd vss gf180mcu_fd_sc_mcu7t5v0__clkbuf_1
X_2654_ _1417_ _0318_ _0322_ _0343_ vdd vss gf180mcu_fd_sc_mcu7t5v0__nor3_1
X_2585_ _0211_ _0222_ _1419_ _0269_ vdd vss gf180mcu_fd_sc_mcu7t5v0__oai21_1
X_1605_ _0650_ _0684_ _0655_ _0685_ vdd vss gf180mcu_fd_sc_mcu7t5v0__aoi21_2
X_1536_ _0604_ _0554_ _0617_ vdd vss gf180mcu_fd_sc_mcu7t5v0__and2_1
X_1467_ net39 _0091_ vdd vss gf180mcu_fd_sc_mcu7t5v0__clkbuf_1
XFILLER_67_384 vdd vss gf180mcu_fd_sc_mcu7t5v0__fill_1
XFILLER_55_502 vdd vss gf180mcu_fd_sc_mcu7t5v0__fill_2
XANTENNA__2872__A1 _0439_ vdd vss gf180mcu_fd_sc_mcu7t5v0__antenna
XFILLER_27_215 vdd vss gf180mcu_fd_sc_mcu7t5v0__fill_1
XFILLER_27_226 vdd vss gf180mcu_fd_sc_mcu7t5v0__fill_1
XANTENNA__1675__A2 _0672_ vdd vss gf180mcu_fd_sc_mcu7t5v0__antenna
XFILLER_42_218 vdd vss gf180mcu_fd_sc_mcu7t5v0__fill_2
XANTENNA__2624__A1 _0151_ vdd vss gf180mcu_fd_sc_mcu7t5v0__antenna
X_2019_ _0665_ _1083_ _1092_ _1094_ vdd vss gf180mcu_fd_sc_mcu7t5v0__and3_1
XFILLER_6_108 vdd vss gf180mcu_fd_sc_mcu7t5v0__fill_1
XFILLER_2_314 vdd vss gf180mcu_fd_sc_mcu7t5v0__fill_2
XFILLER_2_358 vdd vss gf180mcu_fd_sc_mcu7t5v0__fill_1
XFILLER_58_362 vdd vss gf180mcu_fd_sc_mcu7t5v0__fillcap_4
XFILLER_18_215 vdd vss gf180mcu_fd_sc_mcu7t5v0__fill_2
XFILLER_58_395 vdd vss gf180mcu_fd_sc_mcu7t5v0__fillcap_4
XANTENNA__1711__C _0732_ vdd vss gf180mcu_fd_sc_mcu7t5v0__antenna