*SPEF "ieee 1481-1999"
*DESIGN "user_project_wrapper"
*DATE "11:11:11 Fri 11 11, 1111"
*VENDOR "OpenRCX"
*PROGRAM "Parallel Extraction"
*VERSION "1.0"
*DESIGN_FLOW "NAME_SCOPE LOCAL" "PIN_CAP NONE"
*DIVIDER /
*DELIMITER :
*BUS_DELIMITER []
*T_UNIT 1 NS
*C_UNIT 1 PF
*R_UNIT 1 OHM
*L_UNIT 1 HENRY

*NAME_MAP
*1 io_in[0]
*2 io_in[10]
*3 io_in[11]
*4 io_in[12]
*5 io_in[13]
*6 io_in[14]
*7 io_in[15]
*8 io_in[16]
*9 io_in[17]
*10 io_in[18]
*11 io_in[19]
*12 io_in[1]
*13 io_in[20]
*14 io_in[21]
*15 io_in[22]
*16 io_in[23]
*17 io_in[24]
*18 io_in[25]
*19 io_in[26]
*20 io_in[27]
*21 io_in[28]
*22 io_in[29]
*23 io_in[2]
*24 io_in[30]
*25 io_in[31]
*26 io_in[32]
*27 io_in[33]
*28 io_in[34]
*29 io_in[35]
*30 io_in[36]
*31 io_in[37]
*32 io_in[3]
*33 io_in[4]
*34 io_in[5]
*35 io_in[6]
*36 io_in[7]
*37 io_in[8]
*38 io_in[9]
*39 io_oeb[0]
*40 io_oeb[10]
*41 io_oeb[11]
*42 io_oeb[12]
*43 io_oeb[13]
*44 io_oeb[14]
*45 io_oeb[15]
*46 io_oeb[16]
*47 io_oeb[17]
*48 io_oeb[18]
*49 io_oeb[19]
*50 io_oeb[1]
*51 io_oeb[20]
*52 io_oeb[21]
*53 io_oeb[22]
*54 io_oeb[23]
*55 io_oeb[24]
*56 io_oeb[25]
*57 io_oeb[26]
*58 io_oeb[27]
*59 io_oeb[28]
*60 io_oeb[29]
*61 io_oeb[2]
*62 io_oeb[30]
*63 io_oeb[31]
*64 io_oeb[32]
*65 io_oeb[33]
*66 io_oeb[34]
*67 io_oeb[35]
*68 io_oeb[36]
*69 io_oeb[37]
*70 io_oeb[3]
*71 io_oeb[4]
*72 io_oeb[5]
*73 io_oeb[6]
*74 io_oeb[7]
*75 io_oeb[8]
*76 io_oeb[9]
*77 io_out[0]
*78 io_out[10]
*79 io_out[11]
*80 io_out[12]
*81 io_out[13]
*82 io_out[14]
*83 io_out[15]
*84 io_out[16]
*85 io_out[17]
*86 io_out[18]
*87 io_out[19]
*88 io_out[1]
*89 io_out[20]
*90 io_out[21]
*91 io_out[22]
*92 io_out[23]
*93 io_out[24]
*94 io_out[25]
*95 io_out[26]
*96 io_out[27]
*97 io_out[28]
*98 io_out[29]
*99 io_out[2]
*100 io_out[30]
*101 io_out[31]
*102 io_out[32]
*103 io_out[33]
*104 io_out[34]
*105 io_out[35]
*106 io_out[36]
*107 io_out[37]
*108 io_out[3]
*109 io_out[4]
*110 io_out[5]
*111 io_out[6]
*112 io_out[7]
*113 io_out[8]
*114 io_out[9]
*115 la_data_in[0]
*116 la_data_in[10]
*117 la_data_in[11]
*118 la_data_in[12]
*119 la_data_in[13]
*120 la_data_in[14]
*121 la_data_in[15]
*122 la_data_in[16]
*123 la_data_in[17]
*124 la_data_in[18]
*125 la_data_in[19]
*126 la_data_in[1]
*127 la_data_in[20]
*128 la_data_in[21]
*129 la_data_in[22]
*130 la_data_in[23]
*131 la_data_in[24]
*132 la_data_in[25]
*133 la_data_in[26]
*134 la_data_in[27]
*135 la_data_in[28]
*136 la_data_in[29]
*137 la_data_in[2]
*138 la_data_in[30]
*139 la_data_in[31]
*140 la_data_in[32]
*141 la_data_in[33]
*142 la_data_in[34]
*143 la_data_in[35]
*144 la_data_in[36]
*145 la_data_in[37]
*146 la_data_in[38]
*147 la_data_in[39]
*148 la_data_in[3]
*149 la_data_in[40]
*150 la_data_in[41]
*151 la_data_in[42]
*152 la_data_in[43]
*153 la_data_in[44]
*154 la_data_in[45]
*155 la_data_in[46]
*156 la_data_in[47]
*157 la_data_in[48]
*158 la_data_in[49]
*159 la_data_in[4]
*160 la_data_in[50]
*161 la_data_in[51]
*162 la_data_in[52]
*163 la_data_in[53]
*164 la_data_in[54]
*165 la_data_in[55]
*166 la_data_in[56]
*167 la_data_in[57]
*168 la_data_in[58]
*169 la_data_in[59]
*170 la_data_in[5]
*171 la_data_in[60]
*172 la_data_in[61]
*173 la_data_in[62]
*174 la_data_in[63]
*175 la_data_in[6]
*176 la_data_in[7]
*177 la_data_in[8]
*178 la_data_in[9]
*179 la_data_out[0]
*180 la_data_out[10]
*181 la_data_out[11]
*182 la_data_out[12]
*183 la_data_out[13]
*184 la_data_out[14]
*185 la_data_out[15]
*186 la_data_out[16]
*187 la_data_out[17]
*188 la_data_out[18]
*189 la_data_out[19]
*190 la_data_out[1]
*191 la_data_out[20]
*192 la_data_out[21]
*193 la_data_out[22]
*194 la_data_out[23]
*195 la_data_out[24]
*196 la_data_out[25]
*197 la_data_out[26]
*198 la_data_out[27]
*199 la_data_out[28]
*200 la_data_out[29]
*201 la_data_out[2]
*202 la_data_out[30]
*203 la_data_out[31]
*204 la_data_out[32]
*205 la_data_out[33]
*206 la_data_out[34]
*207 la_data_out[35]
*208 la_data_out[36]
*209 la_data_out[37]
*210 la_data_out[38]
*211 la_data_out[39]
*212 la_data_out[3]
*213 la_data_out[40]
*214 la_data_out[41]
*215 la_data_out[42]
*216 la_data_out[43]
*217 la_data_out[44]
*218 la_data_out[45]
*219 la_data_out[46]
*220 la_data_out[47]
*221 la_data_out[48]
*222 la_data_out[49]
*223 la_data_out[4]
*224 la_data_out[50]
*225 la_data_out[51]
*226 la_data_out[52]
*227 la_data_out[53]
*228 la_data_out[54]
*229 la_data_out[55]
*230 la_data_out[56]
*231 la_data_out[57]
*232 la_data_out[58]
*233 la_data_out[59]
*234 la_data_out[5]
*235 la_data_out[60]
*236 la_data_out[61]
*237 la_data_out[62]
*238 la_data_out[63]
*239 la_data_out[6]
*240 la_data_out[7]
*241 la_data_out[8]
*242 la_data_out[9]
*243 la_oenb[0]
*244 la_oenb[10]
*245 la_oenb[11]
*246 la_oenb[12]
*247 la_oenb[13]
*248 la_oenb[14]
*249 la_oenb[15]
*250 la_oenb[16]
*251 la_oenb[17]
*252 la_oenb[18]
*253 la_oenb[19]
*254 la_oenb[1]
*255 la_oenb[20]
*256 la_oenb[21]
*257 la_oenb[22]
*258 la_oenb[23]
*259 la_oenb[24]
*260 la_oenb[25]
*261 la_oenb[26]
*262 la_oenb[27]
*263 la_oenb[28]
*264 la_oenb[29]
*265 la_oenb[2]
*266 la_oenb[30]
*267 la_oenb[31]
*268 la_oenb[32]
*269 la_oenb[33]
*270 la_oenb[34]
*271 la_oenb[35]
*272 la_oenb[36]
*273 la_oenb[37]
*274 la_oenb[38]
*275 la_oenb[39]
*276 la_oenb[3]
*277 la_oenb[40]
*278 la_oenb[41]
*279 la_oenb[42]
*280 la_oenb[43]
*281 la_oenb[44]
*282 la_oenb[45]
*283 la_oenb[46]
*284 la_oenb[47]
*285 la_oenb[48]
*286 la_oenb[49]
*287 la_oenb[4]
*288 la_oenb[50]
*289 la_oenb[51]
*290 la_oenb[52]
*291 la_oenb[53]
*292 la_oenb[54]
*293 la_oenb[55]
*294 la_oenb[56]
*295 la_oenb[57]
*296 la_oenb[58]
*297 la_oenb[59]
*298 la_oenb[5]
*299 la_oenb[60]
*300 la_oenb[61]
*301 la_oenb[62]
*302 la_oenb[63]
*303 la_oenb[6]
*304 la_oenb[7]
*305 la_oenb[8]
*306 la_oenb[9]
*307 user_clock2
*308 user_irq[0]
*309 user_irq[1]
*310 user_irq[2]
*313 wb_clk_i
*314 wb_rst_i
*315 wbs_ack_o
*316 wbs_adr_i[0]
*317 wbs_adr_i[10]
*318 wbs_adr_i[11]
*319 wbs_adr_i[12]
*320 wbs_adr_i[13]
*321 wbs_adr_i[14]
*322 wbs_adr_i[15]
*323 wbs_adr_i[16]
*324 wbs_adr_i[17]
*325 wbs_adr_i[18]
*326 wbs_adr_i[19]
*327 wbs_adr_i[1]
*328 wbs_adr_i[20]
*329 wbs_adr_i[21]
*330 wbs_adr_i[22]
*331 wbs_adr_i[23]
*332 wbs_adr_i[24]
*333 wbs_adr_i[25]
*334 wbs_adr_i[26]
*335 wbs_adr_i[27]
*336 wbs_adr_i[28]
*337 wbs_adr_i[29]
*338 wbs_adr_i[2]
*339 wbs_adr_i[30]
*340 wbs_adr_i[31]
*341 wbs_adr_i[3]
*342 wbs_adr_i[4]
*343 wbs_adr_i[5]
*344 wbs_adr_i[6]
*345 wbs_adr_i[7]
*346 wbs_adr_i[8]
*347 wbs_adr_i[9]
*348 wbs_cyc_i
*349 wbs_dat_i[0]
*350 wbs_dat_i[10]
*351 wbs_dat_i[11]
*352 wbs_dat_i[12]
*353 wbs_dat_i[13]
*354 wbs_dat_i[14]
*355 wbs_dat_i[15]
*356 wbs_dat_i[16]
*357 wbs_dat_i[17]
*358 wbs_dat_i[18]
*359 wbs_dat_i[19]
*360 wbs_dat_i[1]
*361 wbs_dat_i[20]
*362 wbs_dat_i[21]
*363 wbs_dat_i[22]
*364 wbs_dat_i[23]
*365 wbs_dat_i[24]
*366 wbs_dat_i[25]
*367 wbs_dat_i[26]
*368 wbs_dat_i[27]
*369 wbs_dat_i[28]
*370 wbs_dat_i[29]
*371 wbs_dat_i[2]
*372 wbs_dat_i[30]
*373 wbs_dat_i[31]
*374 wbs_dat_i[3]
*375 wbs_dat_i[4]
*376 wbs_dat_i[5]
*377 wbs_dat_i[6]
*378 wbs_dat_i[7]
*379 wbs_dat_i[8]
*380 wbs_dat_i[9]
*381 wbs_dat_o[0]
*382 wbs_dat_o[10]
*383 wbs_dat_o[11]
*384 wbs_dat_o[12]
*385 wbs_dat_o[13]
*386 wbs_dat_o[14]
*387 wbs_dat_o[15]
*388 wbs_dat_o[16]
*389 wbs_dat_o[17]
*390 wbs_dat_o[18]
*391 wbs_dat_o[19]
*392 wbs_dat_o[1]
*393 wbs_dat_o[20]
*394 wbs_dat_o[21]
*395 wbs_dat_o[22]
*396 wbs_dat_o[23]
*397 wbs_dat_o[24]
*398 wbs_dat_o[25]
*399 wbs_dat_o[26]
*400 wbs_dat_o[27]
*401 wbs_dat_o[28]
*402 wbs_dat_o[29]
*403 wbs_dat_o[2]
*404 wbs_dat_o[30]
*405 wbs_dat_o[31]
*406 wbs_dat_o[3]
*407 wbs_dat_o[4]
*408 wbs_dat_o[5]
*409 wbs_dat_o[6]
*410 wbs_dat_o[7]
*411 wbs_dat_o[8]
*412 wbs_dat_o[9]
*413 wbs_sel_i[0]
*414 wbs_sel_i[1]
*415 wbs_sel_i[2]
*416 wbs_sel_i[3]
*417 wbs_stb_i
*418 wbs_we_i
*419 _0_
*420 OQPSK_PS_RCOSINE2

*PORTS
io_in[0] I
io_in[10] I
io_in[11] I
io_in[12] I
io_in[13] I
io_in[14] I
io_in[15] I
io_in[16] I
io_in[17] I
io_in[18] I
io_in[19] I
io_in[1] I
io_in[20] I
io_in[21] I
io_in[22] I
io_in[23] I
io_in[24] I
io_in[25] I
io_in[26] I
io_in[27] I
io_in[28] I
io_in[29] I
io_in[2] I
io_in[30] I
io_in[31] I
io_in[32] I
io_in[33] I
io_in[34] I
io_in[35] I
io_in[36] I
io_in[37] I
io_in[3] I
io_in[4] I
io_in[5] I
io_in[6] I
io_in[7] I
io_in[8] I
io_in[9] I
io_oeb[0] O
io_oeb[10] O
io_oeb[11] O
io_oeb[12] O
io_oeb[13] O
io_oeb[14] O
io_oeb[15] O
io_oeb[16] O
io_oeb[17] O
io_oeb[18] O
io_oeb[19] O
io_oeb[1] O
io_oeb[20] O
io_oeb[21] O
io_oeb[22] O
io_oeb[23] O
io_oeb[24] O
io_oeb[25] O
io_oeb[26] O
io_oeb[27] O
io_oeb[28] O
io_oeb[29] O
io_oeb[2] O
io_oeb[30] O
io_oeb[31] O
io_oeb[32] O
io_oeb[33] O
io_oeb[34] O
io_oeb[35] O
io_oeb[36] O
io_oeb[37] O
io_oeb[3] O
io_oeb[4] O
io_oeb[5] O
io_oeb[6] O
io_oeb[7] O
io_oeb[8] O
io_oeb[9] O
io_out[0] O
io_out[10] O
io_out[11] O
io_out[12] O
io_out[13] O
io_out[14] O
io_out[15] O
io_out[16] O
io_out[17] O
io_out[18] O
io_out[19] O
io_out[1] O
io_out[20] O
io_out[21] O
io_out[22] O
io_out[23] O
io_out[24] O
io_out[25] O
io_out[26] O
io_out[27] O
io_out[28] O
io_out[29] O
io_out[2] O
io_out[30] O
io_out[31] O
io_out[32] O
io_out[33] O
io_out[34] O
io_out[35] O
io_out[36] O
io_out[37] O
io_out[3] O
io_out[4] O
io_out[5] O
io_out[6] O
io_out[7] O
io_out[8] O
io_out[9] O
la_data_in[0] I
la_data_in[10] I
la_data_in[11] I
la_data_in[12] I
la_data_in[13] I
la_data_in[14] I
la_data_in[15] I
la_data_in[16] I
la_data_in[17] I
la_data_in[18] I
la_data_in[19] I
la_data_in[1] I
la_data_in[20] I
la_data_in[21] I
la_data_in[22] I
la_data_in[23] I
la_data_in[24] I
la_data_in[25] I
la_data_in[26] I
la_data_in[27] I
la_data_in[28] I
la_data_in[29] I
la_data_in[2] I
la_data_in[30] I
la_data_in[31] I
la_data_in[32] I
la_data_in[33] I
la_data_in[34] I
la_data_in[35] I
la_data_in[36] I
la_data_in[37] I
la_data_in[38] I
la_data_in[39] I
la_data_in[3] I
la_data_in[40] I
la_data_in[41] I
la_data_in[42] I
la_data_in[43] I
la_data_in[44] I
la_data_in[45] I
la_data_in[46] I
la_data_in[47] I
la_data_in[48] I
la_data_in[49] I
la_data_in[4] I
la_data_in[50] I
la_data_in[51] I
la_data_in[52] I
la_data_in[53] I
la_data_in[54] I
la_data_in[55] I
la_data_in[56] I
la_data_in[57] I
la_data_in[58] I
la_data_in[59] I
la_data_in[5] I
la_data_in[60] I
la_data_in[61] I
la_data_in[62] I
la_data_in[63] I
la_data_in[6] I
la_data_in[7] I
la_data_in[8] I
la_data_in[9] I
la_data_out[0] O
la_data_out[10] O
la_data_out[11] O
la_data_out[12] O
la_data_out[13] O
la_data_out[14] O
la_data_out[15] O
la_data_out[16] O
la_data_out[17] O
la_data_out[18] O
la_data_out[19] O
la_data_out[1] O
la_data_out[20] O
la_data_out[21] O
la_data_out[22] O
la_data_out[23] O
la_data_out[24] O
la_data_out[25] O
la_data_out[26] O
la_data_out[27] O
la_data_out[28] O
la_data_out[29] O
la_data_out[2] O
la_data_out[30] O
la_data_out[31] O
la_data_out[32] O
la_data_out[33] O
la_data_out[34] O
la_data_out[35] O
la_data_out[36] O
la_data_out[37] O
la_data_out[38] O
la_data_out[39] O
la_data_out[3] O
la_data_out[40] O
la_data_out[41] O
la_data_out[42] O
la_data_out[43] O
la_data_out[44] O
la_data_out[45] O
la_data_out[46] O
la_data_out[47] O
la_data_out[48] O
la_data_out[49] O
la_data_out[4] O
la_data_out[50] O
la_data_out[51] O
la_data_out[52] O
la_data_out[53] O
la_data_out[54] O
la_data_out[55] O
la_data_out[56] O
la_data_out[57] O
la_data_out[58] O
la_data_out[59] O
la_data_out[5] O
la_data_out[60] O
la_data_out[61] O
la_data_out[62] O
la_data_out[63] O
la_data_out[6] O
la_data_out[7] O
la_data_out[8] O
la_data_out[9] O
la_oenb[0] I
la_oenb[10] I
la_oenb[11] I
la_oenb[12] I
la_oenb[13] I
la_oenb[14] I
la_oenb[15] I
la_oenb[16] I
la_oenb[17] I
la_oenb[18] I
la_oenb[19] I
la_oenb[1] I
la_oenb[20] I
la_oenb[21] I
la_oenb[22] I
la_oenb[23] I
la_oenb[24] I
la_oenb[25] I
la_oenb[26] I
la_oenb[27] I
la_oenb[28] I
la_oenb[29] I
la_oenb[2] I
la_oenb[30] I
la_oenb[31] I
la_oenb[32] I
la_oenb[33] I
la_oenb[34] I
la_oenb[35] I
la_oenb[36] I
la_oenb[37] I
la_oenb[38] I
la_oenb[39] I
la_oenb[3] I
la_oenb[40] I
la_oenb[41] I
la_oenb[42] I
la_oenb[43] I
la_oenb[44] I
la_oenb[45] I
la_oenb[46] I
la_oenb[47] I
la_oenb[48] I
la_oenb[49] I
la_oenb[4] I
la_oenb[50] I
la_oenb[51] I
la_oenb[52] I
la_oenb[53] I
la_oenb[54] I
la_oenb[55] I
la_oenb[56] I
la_oenb[57] I
la_oenb[58] I
la_oenb[59] I
la_oenb[5] I
la_oenb[60] I
la_oenb[61] I
la_oenb[62] I
la_oenb[63] I
la_oenb[6] I
la_oenb[7] I
la_oenb[8] I
la_oenb[9] I
user_clock2 I
user_irq[0] O
user_irq[1] O
user_irq[2] O
wb_clk_i I
wb_rst_i I
wbs_ack_o O
wbs_adr_i[0] I
wbs_adr_i[10] I
wbs_adr_i[11] I
wbs_adr_i[12] I
wbs_adr_i[13] I
wbs_adr_i[14] I
wbs_adr_i[15] I
wbs_adr_i[16] I
wbs_adr_i[17] I
wbs_adr_i[18] I
wbs_adr_i[19] I
wbs_adr_i[1] I
wbs_adr_i[20] I
wbs_adr_i[21] I
wbs_adr_i[22] I
wbs_adr_i[23] I
wbs_adr_i[24] I
wbs_adr_i[25] I
wbs_adr_i[26] I
wbs_adr_i[27] I
wbs_adr_i[28] I
wbs_adr_i[29] I
wbs_adr_i[2] I
wbs_adr_i[30] I
wbs_adr_i[31] I
wbs_adr_i[3] I
wbs_adr_i[4] I
wbs_adr_i[5] I
wbs_adr_i[6] I
wbs_adr_i[7] I
wbs_adr_i[8] I
wbs_adr_i[9] I
wbs_cyc_i I
wbs_dat_i[0] I
wbs_dat_i[10] I
wbs_dat_i[11] I
wbs_dat_i[12] I
wbs_dat_i[13] I
wbs_dat_i[14] I
wbs_dat_i[15] I
wbs_dat_i[16] I
wbs_dat_i[17] I
wbs_dat_i[18] I
wbs_dat_i[19] I
wbs_dat_i[1] I
wbs_dat_i[20] I
wbs_dat_i[21] I
wbs_dat_i[22] I
wbs_dat_i[23] I
wbs_dat_i[24] I
wbs_dat_i[25] I
wbs_dat_i[26] I
wbs_dat_i[27] I
wbs_dat_i[28] I
wbs_dat_i[29] I
wbs_dat_i[2] I
wbs_dat_i[30] I
wbs_dat_i[31] I
wbs_dat_i[3] I
wbs_dat_i[4] I
wbs_dat_i[5] I
wbs_dat_i[6] I
wbs_dat_i[7] I
wbs_dat_i[8] I
wbs_dat_i[9] I
wbs_dat_o[0] O
wbs_dat_o[10] O
wbs_dat_o[11] O
wbs_dat_o[12] O
wbs_dat_o[13] O
wbs_dat_o[14] O
wbs_dat_o[15] O
wbs_dat_o[16] O
wbs_dat_o[17] O
wbs_dat_o[18] O
wbs_dat_o[19] O
wbs_dat_o[1] O
wbs_dat_o[20] O
wbs_dat_o[21] O
wbs_dat_o[22] O
wbs_dat_o[23] O
wbs_dat_o[24] O
wbs_dat_o[25] O
wbs_dat_o[26] O
wbs_dat_o[27] O
wbs_dat_o[28] O
wbs_dat_o[29] O
wbs_dat_o[2] O
wbs_dat_o[30] O
wbs_dat_o[31] O
wbs_dat_o[3] O
wbs_dat_o[4] O
wbs_dat_o[5] O
wbs_dat_o[6] O
wbs_dat_o[7] O
wbs_dat_o[8] O
wbs_dat_o[9] O
wbs_sel_i[0] I
wbs_sel_i[1] I
wbs_sel_i[2] I
wbs_sel_i[3] I
wbs_stb_i I
wbs_we_i I

*D_NET *37 0.203678
*CONN
*P io_in[8] I
*I *420:EN I *D OQPSK_PS_RCOSINE2
*CAP
1 io_in[8] 0.0561388
2 *420:EN 0.000758413
3 *37:11 0.013196
4 *37:10 0.0124375
5 *37:8 0.0127696
6 *37:7 0.0127696
7 *37:5 0.0561388
8 *37:11 *79:8 0.0394697
*RES
1 io_in[8] *37:5 440.325 
2 *37:5 *37:7 4.5 
3 *37:7 *37:8 98.55 
4 *37:8 *37:10 4.5 
5 *37:10 *37:11 144.81 
6 *37:11 *420:EN 9.945 
*END

*D_NET *38 0.247271
*CONN
*P io_in[9] I
*I *420:BitIn I *D OQPSK_PS_RCOSINE2
*CAP
1 io_in[9] 0.000251703
2 *420:BitIn 0.000492014
3 *38:22 0.00604588
4 *38:21 0.00555386
5 *38:19 0.0038945
6 *38:18 0.0038945
7 *38:16 0.0218369
8 *38:15 0.0218369
9 *38:13 0.0678679
10 *38:11 0.0681196
11 *38:19 *80:8 0.0191066
12 *38:19 *93:14 0.000461841
13 *38:19 *96:10 0.00890491
14 *38:22 *87:11 0.0190043
*RES
1 io_in[9] *38:11 2.655 
2 *38:11 *38:13 532.17 
3 *38:13 *38:15 4.5 
4 *38:15 *38:16 168.21 
5 *38:16 *38:18 4.5 
6 *38:18 *38:19 107.19 
7 *38:19 *38:21 4.5 
8 *38:21 *38:22 66.69 
9 *38:22 *420:BitIn 17.46 
*END

*D_NET *78 0.26678
*CONN
*P io_out[10] O
*I *420:I[0] O *D OQPSK_PS_RCOSINE2
*CAP
1 io_out[10] 0.00100991
2 *420:I[0] 0.00144387
3 *78:17 0.0341083
4 *78:16 0.0330984
5 *78:14 0.0728046
6 *78:13 0.0742485
7 *78:13 *86:9 0.00767581
8 *78:14 *80:8 0.00174507
9 *78:14 *93:14 0.0406458
*RES
1 *420:I[0] *78:13 38.61 
2 *78:13 *78:14 628.11 
3 *78:14 *78:16 4.5 
4 *78:16 *78:17 255.51 
5 *78:17 io_out[10] 12.825 
*END

*D_NET *79 0.270522
*CONN
*P io_out[11] O
*I *420:I[1] O *D OQPSK_PS_RCOSINE2
*CAP
1 io_out[11] 0.000253458
2 *420:I[1] 0.00071148
3 *79:14 0.0622338
4 *79:13 0.0619803
5 *79:11 0.0400786
6 *79:10 0.0400786
7 *79:8 0.0125022
8 *79:7 0.0132137
9 *37:11 *79:8 0.0394697
*RES
1 *420:I[1] *79:7 9.765 
2 *79:7 *79:8 145.35 
3 *79:8 *79:10 4.5 
4 *79:10 *79:11 309.33 
5 *79:11 *79:13 4.5 
6 *79:13 *79:14 486.27 
7 *79:14 io_out[11] 2.835 
*END

*D_NET *80 0.299327
*CONN
*P io_out[12] O
*I *420:I[2] O *D OQPSK_PS_RCOSINE2
*CAP
1 io_out[12] 0.000155499
2 *420:I[2] 0.00130699
3 *80:14 0.067303
4 *80:13 0.0671475
5 *80:11 0.0494976
6 *80:10 0.0494976
7 *80:8 0.000978917
8 *80:7 0.0022859
9 *80:8 *93:14 0.0403021
10 *38:19 *80:8 0.0191066
11 *78:14 *80:8 0.00174507
*RES
1 *420:I[2] *80:7 19.17 
2 *80:7 *80:8 108.81 
3 *80:8 *80:10 4.5 
4 *80:10 *80:11 381.87 
5 *80:11 *80:13 4.5 
6 *80:13 *80:14 526.77 
7 *80:14 io_out[12] 1.755 
*END

*D_NET *81 0.257726
*CONN
*P io_out[13] O
*I *420:I[3] O *D OQPSK_PS_RCOSINE2
*CAP
1 io_out[13] 0.000345078
2 *420:I[3] 0.00109612
3 *81:14 0.0530008
4 *81:13 0.0526557
5 *81:11 0.0561755
6 *81:10 0.0561755
7 *81:8 0.0185907
8 *81:7 0.0196868
*RES
1 *420:I[3] *81:7 12.465 
2 *81:7 *81:8 144.81 
3 *81:8 *81:10 4.5 
4 *81:10 *81:11 433.53 
5 *81:11 *81:13 4.5 
6 *81:13 *81:14 413.37 
7 *81:14 io_out[13] 3.375 
*END

*D_NET *82 0.344946
*CONN
*P io_out[14] O
*I *420:I[4] O *D OQPSK_PS_RCOSINE2
*CAP
1 io_out[14] 0.000188785
2 *420:I[4] 0.000148598
3 *82:14 0.0556277
4 *82:13 0.0554389
5 *82:11 0.0781263
6 *82:10 0.0781263
7 *82:8 0.00927275
8 *82:7 0.00942135
9 *82:8 *85:8 0.0585953
*RES
1 *420:I[4] *82:7 5.445 
2 *82:7 *82:8 145.89 
3 *82:8 *82:10 4.5 
4 *82:10 *82:11 602.55 
5 *82:11 *82:13 4.5 
6 *82:13 *82:14 434.97 
7 *82:14 io_out[14] 2.295 
*END

*D_NET *83 0.271215
*CONN
*P io_out[15] O
*I *420:I[5] O *D OQPSK_PS_RCOSINE2
*CAP
1 io_out[15] 0.00107486
2 *420:I[5] 8.11079e-05
3 *83:14 0.0218799
4 *83:13 0.020805
5 *83:11 0.0723964
6 *83:10 0.0723964
7 *83:8 0.0412503
8 *83:7 0.0413314
*RES
1 *420:I[5] *83:7 9.63 
2 *83:7 *83:8 323.37 
3 *83:8 *83:10 4.5 
4 *83:10 *83:11 558.45 
5 *83:11 *83:13 4.5 
6 *83:13 *83:14 163.17 
7 *83:14 io_out[15] 12.825 
*END

*D_NET *84 0.281508
*CONN
*P io_out[16] O
*I *420:I[6] O *D OQPSK_PS_RCOSINE2
*CAP
1 io_out[16] 0.000201854
2 *420:I[6] 0.000126722
3 *84:11 0.0809069
4 *84:10 0.080705
5 *84:8 0.0597203
6 *84:7 0.0598471
*RES
1 *420:I[6] *84:7 9.63 
2 *84:7 *84:8 378.81 
3 *84:8 *84:10 4.5 
4 *84:10 *84:11 622.89 
5 *84:11 io_out[16] 2.295 
*END

*D_NET *85 0.296867
*CONN
*P io_out[17] O
*I *420:I[7] O *D OQPSK_PS_RCOSINE2
*CAP
1 io_out[17] 0.00477629
2 *420:I[7] 0.00010964
3 *85:11 0.0824897
4 *85:10 0.0777134
5 *85:8 0.034697
6 *85:7 0.0348066
7 *85:8 *89:10 0.00015155
8 *85:8 *91:8 0.00352787
9 *82:8 *85:8 0.0585953
*RES
1 *420:I[7] *85:7 5.265 
2 *85:7 *85:8 351.45 
3 *85:8 *85:10 4.5 
4 *85:10 *85:11 599.58 
5 *85:11 io_out[17] 36.945 
*END

*D_NET *86 0.248693
*CONN
*P io_out[18] O
*I *420:I[8] O *D OQPSK_PS_RCOSINE2
*CAP
1 io_out[18] 0.00107486
2 *420:I[8] 9.89439e-05
3 *86:12 0.0286162
4 *86:11 0.0275413
5 *86:9 0.0718177
6 *86:8 0.0719167
7 *86:12 *90:14 0.0399516
8 *78:13 *86:9 0.00767581
*RES
1 *420:I[8] *86:8 14.31 
2 *86:8 *86:9 563.85 
3 *86:9 *86:11 4.5 
4 *86:11 *86:12 263.97 
5 *86:12 io_out[18] 12.825 
*END

*D_NET *87 0.221642
*CONN
*P io_out[19] O
*I *420:I[9] O *D OQPSK_PS_RCOSINE2
*CAP
1 io_out[19] 0.00013291
2 *420:I[9] 0.000470457
3 *87:17 0.0701107
4 *87:16 0.0699777
5 *87:14 0.0175563
6 *87:13 0.0175563
7 *87:11 0.00343937
8 *87:10 0.00390983
9 *87:14 *89:14 0.0194844
10 *87:14 *96:10 0
11 *38:22 *87:11 0.0190043
*RES
1 *420:I[9] *87:10 17.28 
2 *87:10 *87:11 50.31 
3 *87:11 *87:13 4.5 
4 *87:13 *87:14 159.75 
5 *87:14 *87:16 4.5 
6 *87:16 *87:17 540.27 
7 *87:17 io_out[19] 1.755 
*END

*D_NET *89 0.195077
*CONN
*P io_out[20] O
*I *420:I[10] O *D OQPSK_PS_RCOSINE2
*CAP
1 io_out[20] 0.00036847
2 *420:I[10] 0.000616515
3 *89:17 0.0703117
4 *89:16 0.0699433
5 *89:14 0.00326809
6 *89:13 0.00326809
7 *89:11 0.011915
8 *89:10 0.0125315
9 *89:11 *95:11 0.00321817
10 *85:8 *89:10 0.00015155
11 *87:14 *89:14 0.0194844
*RES
1 *420:I[10] *89:10 14.535 
2 *89:10 *89:11 95.13 
3 *89:11 *89:13 4.5 
4 *89:13 *89:14 48.87 
5 *89:14 *89:16 4.5 
6 *89:16 *89:17 540.09 
7 *89:17 io_out[20] 3.375 
*END

*D_NET *90 0.248625
*CONN
*P io_out[21] O
*I *420:I[11] O *D OQPSK_PS_RCOSINE2
*CAP
1 io_out[21] 0.00132995
2 *420:I[11] 0.000531519
3 *90:14 0.0149435
4 *90:13 0.0136135
5 *90:11 0.0769299
6 *90:10 0.0774614
7 *90:11 *93:11 0.0238638
8 *86:12 *90:14 0.0399516
*RES
1 *420:I[11] *90:10 17.64 
2 *90:10 *90:11 623.43 
3 *90:11 *90:13 4.5 
4 *90:13 *90:14 155.07 
5 *90:14 io_out[21] 12.645 
*END

*D_NET *91 0.21594
*CONN
*P io_out[22] O
*I *420:addI[0] O *D OQPSK_PS_RCOSINE2
*CAP
1 io_out[22] 0.00476033
2 *420:addI[0] 0.000148598
3 *91:11 0.0824363
4 *91:10 0.0776759
5 *91:8 0.0208187
6 *91:7 0.0209673
7 *91:8 *92:14 0.00560505
8 *85:8 *91:8 0.00352787
*RES
1 *420:addI[0] *91:7 5.445 
2 *91:7 *91:8 189.27 
3 *91:8 *91:10 4.5 
4 *91:10 *91:11 599.76 
5 *91:11 io_out[22] 36.945 
*END

*D_NET *92 0.253624
*CONN
*P io_out[23] O
*I *420:addI[1] O *D OQPSK_PS_RCOSINE2
*CAP
1 io_out[23] 0.000270799
2 *420:addI[1] 0.00167602
3 *92:17 0.0828162
4 *92:16 0.0825454
5 *92:14 0.0333136
6 *92:13 0.0349896
7 *92:13 *94:8 0.0104914
8 *92:13 *313:14 0.00191635
9 *92:14 *94:8 0
10 *91:8 *92:14 0.00560505
*RES
1 *420:addI[1] *92:13 45.045 
2 *92:13 *92:14 280.89 
3 *92:14 *92:16 4.5 
4 *92:16 *92:17 637.47 
5 *92:17 io_out[23] 2.835 
*END

*D_NET *93 0.327576
*CONN
*P io_out[24] O
*I *420:addI[2] O *D OQPSK_PS_RCOSINE2
*CAP
1 io_out[24] 0.00117627
2 *420:addI[2] 0.000726024
3 *93:17 0.0667689
4 *93:16 0.0655926
5 *93:14 0.0396742
6 *93:13 0.0396742
7 *93:11 0.00398221
8 *93:10 0.00470823
9 *93:14 *96:10 0
10 *38:19 *93:14 0.000461841
11 *78:14 *93:14 0.0406458
12 *80:8 *93:14 0.0403021
13 *90:11 *93:11 0.0238638
*RES
1 *420:addI[2] *93:10 17.82 
2 *93:10 *93:11 60.75 
3 *93:11 *93:13 4.5 
4 *93:13 *93:14 412.11 
5 *93:14 *93:16 4.5 
6 *93:16 *93:17 506.43 
7 *93:17 io_out[24] 13.365 
*END

*D_NET *94 0.24095
*CONN
*P io_out[25] O
*I *420:addI[3] O *D OQPSK_PS_RCOSINE2
*CAP
1 io_out[25] 0.000323383
2 *420:addI[3] 0.000470325
3 *94:14 0.0215318
4 *94:13 0.0212084
5 *94:11 0.0689546
6 *94:10 0.0689546
7 *94:8 0.0214934
8 *94:7 0.0219638
9 *94:8 *313:14 0.00555827
10 *94:8 *314:16 0
11 *92:13 *94:8 0.0104914
12 *92:14 *94:8 0
*RES
1 *420:addI[3] *94:7 7.965 
2 *94:7 *94:8 200.97 
3 *94:8 *94:10 4.5 
4 *94:10 *94:11 532.17 
5 *94:11 *94:13 4.5 
6 *94:13 *94:14 165.51 
7 *94:14 io_out[25] 3.015 
*END

*D_NET *95 0.207065
*CONN
*P io_out[26] O
*I *420:addI[4] O *D OQPSK_PS_RCOSINE2
*CAP
1 io_out[26] 0.000242542
2 *420:addI[4] 0.000190996
3 *95:14 0.0537136
4 *95:13 0.053471
5 *95:11 0.0479807
6 *95:10 0.0481717
7 *95:11 *96:9 7.64682e-05
8 *89:11 *95:11 0.00321817
*RES
1 *420:addI[4] *95:10 14.94 
2 *95:10 *95:11 374.13 
3 *95:11 *95:13 4.5 
4 *95:13 *95:14 418.05 
5 *95:14 io_out[26] 2.475 
*END

*D_NET *96 0.186671
*CONN
*P io_out[27] O
*I *420:addI[5] O *D OQPSK_PS_RCOSINE2
*CAP
1 io_out[27] 0.000177869
2 *420:addI[5] 0.000135251
3 *96:16 0.0223693
4 *96:15 0.0221914
5 *96:13 0.0388181
6 *96:12 0.0388181
7 *96:10 0.0275219
8 *96:9 0.0276572
9 *38:19 *96:10 0.00890491
10 *87:14 *96:10 0
11 *93:14 *96:10 0
12 *95:11 *96:9 7.64682e-05
*RES
1 *420:addI[5] *96:9 5.715 
2 *96:9 *96:10 243.81 
3 *96:10 *96:12 4.5 
4 *96:12 *96:13 299.79 
5 *96:13 *96:15 4.5 
6 *96:15 *96:16 173.61 
7 *96:16 io_out[27] 1.935 
*END

*D_NET *313 0.23408
*CONN
*P wb_clk_i I
*I *420:CLK I *D OQPSK_PS_RCOSINE2
*CAP
1 wb_clk_i 0.000469748
2 *420:CLK 0.000624191
3 *313:14 0.0161109
4 *313:13 0.0154867
5 *313:11 0.0402434
6 *313:10 0.0402434
7 *313:8 0.0236736
8 *313:7 0.0241433
9 *313:7 *314:13 0.00108709
10 *313:14 *314:16 0.0645234
11 *92:13 *313:14 0.00191635
12 *94:8 *313:14 0.00555827
*RES
1 wb_clk_i *313:7 10.665 
2 *313:7 *313:8 150.21 
3 *313:8 *313:10 4.5 
4 *313:10 *313:11 310.77 
5 *313:11 *313:13 4.5 
6 *313:13 *313:14 226.35 
7 *313:14 *420:CLK 9.045 
*END

*D_NET *314 0.208619
*CONN
*P wb_rst_i I
*I *420:RST I *D OQPSK_PS_RCOSINE2
*CAP
1 wb_rst_i 0.00034474
2 *420:RST 0.000772811
3 *314:16 0.0304991
4 *314:15 0.0297263
5 *314:13 0.0406604
6 *314:11 0.0410052
7 *94:8 *314:16 0
8 *313:7 *314:13 0.00108709
9 *313:14 *314:16 0.0645234
*RES
1 wb_rst_i *314:11 3.015 
2 *314:11 *314:13 316.71 
3 *314:13 *314:15 4.5 
4 *314:15 *314:16 311.31 
5 *314:16 *420:RST 9.225 
*END
